[General]
cmdenv-express-mode = true
cmdenv-autoflush = true

network = lte.simulations.D2DMode4_Dale.Scenario
debug-on-errors = true
print-undisposed = false

sim-time-limit = 70s
repeat = 1

**.statistic-recording = true
**.scalar-recording = true
**.vector-recording = true

output-vector-file = "results/10_UAV_PERIOD_P_PACKET_235/${P}_period_${runid}.vec"
output-scalar-file = "results/10_UAV_PERIOD_P_PACKET_235/${P}_period_${runid}.sca"

#output-vector-file = "try/${P}/${N}_Hosts_${runid}.vec"
#output-scalar-file = "try/${P}/${N}_Hosts_${runid}.sca"

**.coreDebug = false
**.routingRecorder.enabled = false

*.playgroundSizeX = 20000m
*.playgroundSizeY = 20000m
*.playgroundSizeZ = 50m

num-rngs = 4

#*.traci.mapper.rng-0 = 1

**.channelControl.pMax = 10W
**.channelControl.alpha = 1.0
**.channelControl.carrierFrequency = 6000e+6Hz

**.lteNic.phy.channelModel = xmldoc("config_channel.xml")
**.feedbackComputation = xmldoc("config_channel.xml")
**.rbAllocationType = "localized"
**.feedbackType = "ALLBANDS"
**.feedbackGeneratorType = "IDEAL"
**.maxHarqRtx = 0
**.deployer.ruRange = 50
**.deployer.ruTxPower = "50,50,50;"
**.deployer.antennaCws = "2;" # !!MACRO + RUS (numRus + 1)
**.deployer.numRbDl = 51
**.deployer.numRbUl = 48
**.numBands = 48
**.fbDelay = 1

**.macDelayDl.statistic-recording = false
**.macThroughputDl.statistic-recording = false
**.macDelayUl.statistic-recording = false
**.macThroughputUl.statistic-recording = false
**.macDelayD2D.statistic-recording = false
**.macThroughputD2D.statistic-recording = false
**.macCellThroughputUl.statistic-recording = false
**.macCellThroughputDl.statistic-recording = false
**.macCellThroughputD2D.statistic-recording = false
**.macCellPacketLossDl.statistic-recording = false
**.macCellPacketLossUl.statistic-recording = false
**.macCellPacketLossD2D.statistic-recording = false
**.macPacketLossUl.statistic-recording = false
**.macPacketLossDl.statistic-recording = false
**.macPacketLossD2D.statistic-recording = false
**.macBufferOverFlowDl.statistic-recording = false
**.macBufferOverFlowUl.statistic-recording = false
**.macBufferOverFlowD2D.statistic-recording = false
**.harqErrorRateUl.statistic-recording = false
**.harqErrorRateDl.statistic-recording = false
**.harqErrorRateD2D.statistic-recording = false
**.harqErrorRate_1st_Ul.statistic-recording = false
**.harqErrorRate_1st_Dl.statistic-recording = false
**.harqErrorRate_1st_D2D.statistic-recording = false
**.harqErrorRate_2nd_Ul.statistic-recording = false
**.harqErrorRate_2nd_D2D.statistic-recording = false
**.harqErrorRate_3rd_Ul.statistic-recording = false
**.harqErrorRate_3rd_Dl.statistic-recording = false
**.harqErrorRate_3rd_D2D.statistic-recording = false
**.harqErrorRate_4th_Ul.statistic-recording = false
**.harqErrorRate_4th_Dl.statistic-recording = false
**.harqErrorRate_4th_D2D.statistic-recording = false
**.receivedPacketFromUpperLayer.statistic-recording = false
**.receivedPacketFromLowerLayer.statistic-recording = false
**.sentPacketToUpperLayer.statistic-recording = false
**.sentPacketToLowerLayer.statistic-recording = false
**.measuredItbs.statistic-recording = false
**.pdcpdrop0.statistic-recording = false
**.pdcpdrop1.statistic-recording = false
**.pdcpdrop2.statistic-recording = false
**.pdcpdrop3.statistic-recording = false
**.averageCqiD2D.statistic-recording = false
**.averageCqiDl.statistic-recording = false
**.averageCqiUl.statistic-recording = false

##########################################################
#                 UAVs parameters                        #
##########################################################

#numero car
*.numUav = ${N=10} #${N=2, 4, 6, 8, 10..25 step 5}
*.uav[*].mobility.numHosts = ${N} #impostarlo uguale al numCar, serve alla mobilty per il calcolo degli spazi cella per ogni nodo da porre nello scenario

#movimento car
*.uav[*].mobility.initFromDisplayString = false

#test: 
# GETSINR fino 1499m, oltre non lo fa

#mobilita old non funziona parametricamente ma gli host si muovono
#*.car[*].mobilityType = "MassMobility"
#*.car[*].mobility.typename = "MassMobility"
#*.car[*].mobility.changeInterval = 1s
#*.car[*].mobility.speed = 0mps #uniform(10mps,20mps) # --> 0 fermi, altro in movimento
#*.car[*].mobility.changeAngleBy = 1deg

#*.car[0].mobility.initialX = 20m    #per ora sto mettendo le x a mano
#*.car[1].mobility.initialX = 820m
#*.car[2].mobility.initialX = 1620m
#*.car[3].mobility.initialX = 2420m
#**.deployer.positionUpdateInterval = 0.01s

#static grid mobility parametrica
*.uav[*].mobilityType = "StaticGridMobility"
*.uav[*].mobility.typename = "StaticGridMobility"
*.uav[*].mobility.constraintAreaMinX = 0m
*.uav[*].mobility.constraintAreaMinY = 300m
*.uav[*].mobility.separationX = 800m
*.uav[*].mobility.separationY = 0m

#invio e ricezione messaggi
*.uav[0].appl.period = ${P=0.05s, 0.1s, 0.2s, 0.3s, 0.4s, 0.5s, 0.8s, 1s}#0.1s #settando a 1 questo paramentro abilito l'invio dei messaggi solo per la car scelta
*.uav[*].appl.destHost = ${N} #selezione l'host destinatario del messaggio sempre l'ultimo


#configurazioen scheda di rete
*.uav[*].d2dCapable = true
*.uav[*].mode4D2D = true
**.amcMode = "D2D"
*.uav[*].applType = "Mode4App"
*.uav[*].appl.packetSize = 235  #default 190 max 235 dopo non funziona
*.uav[*].nicType = "LteNicVUeMode4"
*.uav[*].lteNic.d2dCapable = true
*.uav[*].lteNic.pdcpRrc.ipBased = false
*.uav[*].lteNic.rlc.ipBased = false
*.uav[*].lteNic.mac.subchannelSize = 16
*.uav[*].lteNic.mac.numSubchannels = 3
*.uav[*].lteNic.mac.probResourceKeep = 0.4
*.uav[*].lteNic.mac.useCBR = false
*.uav[*].lteNic.mac.crLimit = false
*.uav[*].lteNic.mac.rriLookup = false
*.uav[*].lteNic.mac.dccMechanism = false
*.uav[*].lteNic.mac.packetDropping = false
*.uav[*].lteNic.mac.reselectAfter = 1
*.uav[*].lteNic.mac.adjacencyPSCCHPSSCH = true
*.uav[*].lteNic.rlc.um.scenario3gpp = false
*.uav[*].lteNic.phy.subchannelSize = 16
*.uav[*].lteNic.phy.numSubchannels = 3
*.uav[*].lteNic.phy.selectionWindowStartingSubframe = 1
*.uav[*].lteNic.phy.adjacencyPSCCHPSSCH = true
*.uav[*].lteNic.phy.pStep = 100
*.uav[*].lteNic.phy.thresholdRSSI = 10
*.uav[*].ueTxPower = 23
*.uav[*].lteNic.phy.d2dTxPower = 23
**.usePreconfiguredTxParams = true
**.lteNic.mac.txConfig = xmldoc("sidelink_configuration.xml")